Version 4
SHEET 1 880 692
WIRE -256 -48 -336 -48
WIRE -256 -16 -256 -48
WIRE -336 0 -336 -48
WIRE -768 48 -768 32
WIRE -688 48 -688 32
WIRE 32 48 0 48
WIRE 0 64 0 48
WIRE -160 80 -160 64
WIRE -256 96 -256 64
WIRE -192 96 -256 96
WIRE -96 112 -128 112
WIRE -80 112 -96 112
WIRE 32 112 0 112
WIRE -192 128 -432 128
WIRE -96 128 -96 112
WIRE -768 144 -768 128
WIRE -688 144 -688 128
WIRE -592 144 -592 96
WIRE -256 144 -256 96
WIRE -160 160 -160 144
WIRE 32 160 0 160
WIRE 256 160 224 160
WIRE -224 224 -256 224
WIRE -96 224 -96 192
WIRE -96 224 -224 224
WIRE 32 224 -96 224
WIRE 256 224 224 224
WIRE 416 224 256 224
WIRE -592 240 -592 224
WIRE -576 240 -592 240
WIRE -432 240 -432 128
WIRE -432 240 -496 240
WIRE -592 256 -592 240
WIRE -432 256 -432 240
WIRE -224 256 -224 224
WIRE 256 256 256 224
WIRE -592 352 -592 320
WIRE 256 368 256 336
WIRE -752 448 -928 448
WIRE -432 448 -432 336
WIRE -432 448 -752 448
WIRE -224 464 -224 336
WIRE -928 528 -928 448
WIRE -752 528 -752 448
WIRE -928 640 -928 608
WIRE -816 640 -928 640
WIRE -752 640 -752 608
WIRE -752 640 -816 640
WIRE -816 672 -816 640
FLAG -688 32 VCC
FLAG -160 64 VCC
FLAG -688 144 0
FLAG 0 160 VCC
FLAG 0 64 0
FLAG 256 160 VCC
FLAG 256 368 0
FLAG -768 144 0
FLAG -768 32 VEE
FLAG -224 464 0
FLAG -160 160 VEE
FLAG -816 672 0
FLAG -336 0 0
FLAG 416 224 VOUT
FLAG -592 96 VCC
FLAG -592 352 0
SYMBOL IL300 128 144 R0
SYMATTR InstName U1
SYMBOL res 16 96 R90
WINDOW 0 0 56 VBottom 2
WINDOW 3 32 56 VTop 2
SYMATTR InstName R1
SYMATTR Value 20
SYMBOL res -240 240 R0
SYMATTR InstName R2
SYMATTR Value 3K
SYMBOL res 240 240 R0
SYMATTR InstName R3
SYMATTR Value 20K
SYMBOL voltage -688 32 R0
WINDOW 123 0 0 Left 2
WINDOW 39 0 0 Left 2
SYMATTR InstName V1
SYMATTR Value 10
SYMBOL cap -112 128 R0
SYMATTR InstName C1
SYMATTR Value 100p
SYMBOL voltage -768 144 R180
WINDOW 0 24 96 Left 2
WINDOW 3 24 16 Left 2
WINDOW 123 0 0 Left 2
WINDOW 39 0 0 Left 2
SYMATTR InstName V3
SYMATTR Value 0
SYMBOL res -768 512 R0
SYMATTR InstName R4
SYMATTR Value .001
SYMBOL current -928 528 R0
WINDOW 123 0 0 Left 2
WINDOW 39 0 0 Left 2
SYMATTR InstName I1
SYMATTR Value PULSE(20 -20 0 1n 1n 8m 16m)
SYMBOL res -272 128 R0
SYMATTR InstName R5
SYMATTR Value 9Meg
SYMBOL res -272 -32 R0
SYMATTR InstName R6
SYMATTR Value 1Meg
SYMBOL Opamps\\AD8691 -160 48 R0
SYMATTR InstName U2
SYMBOL zener -576 320 R180
WINDOW 0 24 64 Left 2
WINDOW 3 24 0 Left 2
SYMATTR InstName D1
SYMATTR Value BZX84C6V2L
SYMATTR Description Diode
SYMATTR Type diode
SYMBOL res -608 128 R0
SYMATTR InstName R7
SYMATTR Value 1k
SYMBOL res -480 224 R90
WINDOW 0 0 56 VBottom 2
WINDOW 3 32 56 VTop 2
SYMATTR InstName R8
SYMATTR Value 100k
SYMBOL res -416 352 R180
WINDOW 0 36 76 Left 2
WINDOW 3 36 40 Left 2
SYMATTR InstName R9
SYMATTR Value 400
TEXT 16 280 Left 2 !.tran 100m
